hello universe. please don't mind me. I'll be working on github in silence.
new line.
new line 2.

new line 3